-------------------------------------------------------
          Amber 14 SANDER                              2014
          -------------------------------------------------------

  [-O]verwriting output

File Assignments:

 Here is the input file:

Heating--Water nstlim default 150000
&cntrl
imin=0,
irest=0,
ntb=1,
iwrap=1,
ntx=1,
ntxo=2,
nstlim=50000,
dt=0.001,
cut=8.0,
ntf=1,ntc=1,
ntt=3,
ig=-1,
gamma_ln=2.0,
tempi=0.0,
temp0=300.0,
ntpr=50,
ntwx=50,
/

Note: ig = -1. Setting random seed to   559532 based on wallclock time in
      microseconds and disabling the synchronization of random numbers
      between tasks to improve performance.

--------------------------------------------------------------------------------
   1.  RESOURCE   USE:
--------------------------------------------------------------------------------

 getting new box info from bottom of inpcrd
 NATOM  =    2242 NTYPES =       4 NBONH =    2238 MBONA  =       0
 NTHETH =       0 MTHETA =       0 NPHIH =       0 MPHIA  =       0
 NHPARM =       0 NPARM  =       0 NNB   =    2988 NRES   =     750
 NBONA  =       0 NTHETA =       0 NPHIA =       0 NUMBND =       2
 NUMANG =       0 NPTRA  =       0 NATYP =       4 NPHB   =       0
 IFBOX  =       1 NMXRS  =       3 IFCAP =       0 NEXTRA =       0
 NCOPY  =       0

     BOX TYPE: RECTILINEAR

--------------------------------------------------------------------------------
   2.  CONTROL  DATA  FOR  THE  RUN
--------------------------------------------------------------------------------

Water Box

General flags:
     imin    =       0, nmropt  =       0

Nature and format of input:
     ntx     =       1, irest   =       0, ntrx    =       1

Nature and format of output:
     ntxo    =       2, ntpr    =      50, ntrx    =       1, ntwr    =     500
     iwrap   =       1, ntwx    =      50, ntwv    =       0, ntwe    =       0
     ioutfm  =       0, ntwprt  =       0, idecomp =       0, rbornstat=      0

Potential function:
     ntf     =       1, ntb     =       1, igb     =       0, nsnb    =      25
     ipol    =       0, gbsa    =       0, iesp    =       0
     dielc   =   1.00000, cut     =   8.00000, intdiel =   1.00000

Frozen or restrained atoms:
     ibelly  =       0, ntr     =       0

Molecular dynamics:
     nstlim  =     50000, nscm    =      1000, nrespa  =         1
     t       =   0.00000, dt      =   0.00100, vlimit  =  20.00000

Langevin dynamics temperature regulation:
     ig      =  559532
     temp0   = 300.00000, tempi   =   0.00000, gamma_ln=   2.00000

Ewald parameters:
     verbose =       0, ew_type =       0, nbflag  =       1, use_pme =       1
     vdwmeth =       1, eedmeth =       1, netfrc  =       1
     Box X =   30.500   Box Y =   30.500   Box Z =   30.500
     Alpha =   90.000   Beta  =   90.000   Gamma =   90.000
     NFFT1 =   32       NFFT2 =   32       NFFT3 =   32
     Cutoff=    8.000   Tol   =0.100E-04
     Ewald Coefficient =  0.34864
     Interpolation order =    4

--------------------------------------------------------------------------------
   3.  ATOMIC COORDINATES AND VELOCITIES
--------------------------------------------------------------------------------

Wate
 begin time read from input coords =     0.000 ps

 Number of triangulated 3-point waters found:      746

     Sum of charges from parm topology file =   0.00000000
     Forcing neutrality...

--------------------------------------------------------------------------------
   4.  RESULTS
 NSTEP =        0   TIME(PS) =       0.000  TEMP(K) =     0.00  PRESS =     0.0
 Etot   =     -5615.7069  EKtot   =         0.0000  EPtot      =     -5615.7069
 BOND   =         0.0000  ANGLE   =         0.0000  DIHED      =         0.0000
 1-4 NB =         0.0000  1-4 EEL =         0.0000  VDWAALS    =        69.3383
 EELEC  =     -5685.0452  EHBOND  =         0.0000  RESTRAINT  =         0.0000
 Ewald error estimate:   0.1269E-03
 ------------------------------------------------------------------------------

      A V E R A G E S   O V E R    1000 S T E P S

 NSTEP =    50000   TIME(PS) =      50.000  TEMP(K) =   299.53  PRESS =     0.0
 Etot   =     -4827.1091  EKtot   =      2001.7340  EPtot      =     -6828.8431
 BOND   =      1321.8869  ANGLE   =         0.0000  DIHED      =         0.0000
 1-4 NB =         0.0000  1-4 EEL =         0.0000  VDWAALS    =       609.0751
 EELEC  =     -8759.8051  EHBOND  =         0.0000  RESTRAINT  =         0.0000
 Ewald error estimate:   0.1935E-03
 ------------------------------------------------------------------------------

      R M S  F L U C T U A T I O N S

 NSTEP =    50000   TIME(PS) =      50.000  TEMP(K) =     7.41  PRESS =     0.0
 Etot   =        65.7643  EKtot   =        49.5047  EPtot      =        48.8996
 BOND   =        58.4402  ANGLE   =         0.0000  DIHED      =         0.0000
 1-4 NB =         0.0000  1-4 EEL =         0.0000  VDWAALS    =        44.8030
 EELEC  =        98.4982  EHBOND  =         0.0000  RESTRAINT  =         0.0000
 Ewald error estimate:   0.1436E-03
 ------------------------------------------------------------------------------
