-------------------------------------------------------
          Amber 14 SANDER                              2014
          -------------------------------------------------------

  [-O]verwriting output

File Assignments:

 Here is the input file:

Heating--Water nstlim default 150000
&cntrl
imin=0,
irest=0,

ntb=1,iwrap=1,

ntx=1,
ntxo=2,
nstlim=200000,
dt=0.001,
cut=8.0,
ntf=2,ntc=2,
ntt=3,
ig=-1,
gamma_ln=2.0,
tempi=0.0,
temp0=300.0,
ntpr=50, ntwx=50,
ntb=1
/

Note: ig = -1. Setting random seed to   188765 based on wallclock time in
      microseconds and disabling the synchronization of random numbers
      between tasks to improve performance.

--------------------------------------------------------------------------------
   1.  RESOURCE   USE:
--------------------------------------------------------------------------------

 getting new box info from bottom of inpcrd
 NATOM  =    3003 NTYPES =       4 NBONH =    3000 MBONA  =       2
 NTHETH =       0 MTHETA =       1 NPHIH =       0 MPHIA  =       0
 NHPARM =       0 NPARM  =       0 NNB   =    4004 NRES   =    1001
 NBONA  =       2 NTHETA =       1 NPHIA =       0 NUMBND =       3
 NUMANG =       1 NPTRA  =       0 NATYP =       4 NPHB   =       0
 IFBOX  =       1 NMXRS  =       3 IFCAP =       0 NEXTRA =       0
 NCOPY  =       0

     BOX TYPE: RECTILINEAR

--------------------------------------------------------------------------------
   2.  CONTROL  DATA  FOR  THE  RUN
--------------------------------------------------------------------------------

default_name

General flags:
     imin    =       0, nmropt  =       0

Nature and format of input:
     ntx     =       1, irest   =       0, ntrx    =       1

Nature and format of output:
     ntxo    =       2, ntpr    =      50, ntrx    =       1, ntwr    =     500
     iwrap   =       1, ntwx    =      50, ntwv    =       0, ntwe    =       0
     ioutfm  =       0, ntwprt  =       0, idecomp =       0, rbornstat=      0

Potential function:
     ntf     =       2, ntb     =       1, igb     =       0, nsnb    =      25
     ipol    =       0, gbsa    =       0, iesp    =       0
     dielc   =   1.00000, cut     =   8.00000, intdiel =   1.00000

Frozen or restrained atoms:
     ibelly  =       0, ntr     =       0

Molecular dynamics:
     nstlim  =    200000, nscm    =      1000, nrespa  =         1
     t       =   0.00000, dt      =   0.00100, vlimit  =  20.00000

Langevin dynamics temperature regulation:
     ig      =  188765
     temp0   = 300.00000, tempi   =   0.00000, gamma_ln=   2.00000

SHAKE:
     ntc     =       2, jfastw  =       0
     tol     =   0.00001

Ewald parameters:
     verbose =       0, ew_type =       0, nbflag  =       1, use_pme =       1
     vdwmeth =       1, eedmeth =       1, netfrc  =       1
     Box X =   31.077   Box Y =   31.077   Box Z =  150.000
     Alpha =   90.000   Beta  =   90.000   Gamma =   90.000
     NFFT1 =   32       NFFT2 =   32       NFFT3 =  150
     Cutoff=    8.000   Tol   =0.100E-04
     Ewald Coefficient =  0.34864
     Interpolation order =    4

--------------------------------------------------------------------------------
   3.  ATOMIC COORDINATES AND VELOCITIES
--------------------------------------------------------------------------------

default_name
 begin time read from input coords =     0.000 ps

 Number of triangulated 3-point waters found:     1000

     Sum of charges from parm topology file =   0.00000000
     Forcing neutrality...

--------------------------------------------------------------------------------
   4.  RESULTS
 NSTEP =        0   TIME(PS) =       0.000  TEMP(K) =     0.00  PRESS =     0.0
 Etot   =     -7230.3982  EKtot   =         0.0000  EPtot      =     -7230.3982
 BOND   =         2.5411  ANGLE   =         0.0034  DIHED      =         0.0000
 1-4 NB =         0.0000  1-4 EEL =         0.0000  VDWAALS    =       595.7686
 EELEC  =     -7828.7113  EHBOND  =         0.0000  RESTRAINT  =         0.0000
 Ewald error estimate:   0.3440E-03
 ------------------------------------------------------------------------------

      A V E R A G E S   O V E R    4000 S T E P S

 NSTEP =   200000   TIME(PS) =     200.000  TEMP(K) =   300.56  PRESS =     0.0
 Etot   =     -7570.9128  EKtot   =      1794.4968  EPtot      =     -9365.4096
 BOND   =         2.2249  ANGLE   =         0.3275  DIHED      =         0.0000
 1-4 NB =         0.0000  1-4 EEL =         0.0000  VDWAALS    =      1588.7513
 EELEC  =    -10956.7132  EHBOND  =         0.0000  RESTRAINT  =         0.0000
 Ewald error estimate:   0.1713E-03
 ------------------------------------------------------------------------------

      R M S  F L U C T U A T I O N S

 NSTEP =   200000   TIME(PS) =     200.000  TEMP(K) =     5.71  PRESS =     0.0
 Etot   =        66.3559  EKtot   =        34.1200  EPtot      =        56.6051
 BOND   =         3.4693  ANGLE   =         0.5370  DIHED      =         0.0000
 1-4 NB =         0.0000  1-4 EEL =         0.0000  VDWAALS    =        53.6392
 EELEC  =        93.4422  EHBOND  =         0.0000  RESTRAINT  =         0.0000
 Ewald error estimate:   0.1286E-03
 ------------------------------------------------------------------------------
