-------------------------------------------------------
          Amber 14 SANDER                              2014
          -------------------------------------------------------

  [-O]verwriting output

File Assignments:

 Here is the input file:

300 K Prod. Run Water default nstlim is 250000
&cntrl
imin=0,
ntb=1, iwrap=1,
irest=1,
ntx=5,
ntxo=2,
cut=8.0,
ntf=2,ntc=2,
ntt=1,
tempi=300.0, temp0=300.0,
nstlim=250000,
dt=0.001,
ntpr=50, ntwx=50
/

--------------------------------------------------------------------------------
   1.  RESOURCE   USE:
--------------------------------------------------------------------------------

 getting box info from netcdf restart file
 NATOM  =    3003 NTYPES =       4 NBONH =    3000 MBONA  =       2
 NTHETH =       0 MTHETA =       1 NPHIH =       0 MPHIA  =       0
 NHPARM =       0 NPARM  =       0 NNB   =    4004 NRES   =    1001
 NBONA  =       2 NTHETA =       1 NPHIA =       0 NUMBND =       3
 NUMANG =       1 NPTRA  =       0 NATYP =       4 NPHB   =       0
 IFBOX  =       1 NMXRS  =       3 IFCAP =       0 NEXTRA =       0
 NCOPY  =       0

     BOX TYPE: RECTILINEAR

--------------------------------------------------------------------------------
   2.  CONTROL  DATA  FOR  THE  RUN
--------------------------------------------------------------------------------

default_name

General flags:
     imin    =       0, nmropt  =       0

Nature and format of input:
     ntx     =       5, irest   =       1, ntrx    =       1

Nature and format of output:
     ntxo    =       2, ntpr    =      50, ntrx    =       1, ntwr    =     500
     iwrap   =       1, ntwx    =      50, ntwv    =       0, ntwe    =       0
     ioutfm  =       0, ntwprt  =       0, idecomp =       0, rbornstat=      0

Potential function:
     ntf     =       2, ntb     =       1, igb     =       0, nsnb    =      25
     ipol    =       0, gbsa    =       0, iesp    =       0
     dielc   =   1.00000, cut     =   8.00000, intdiel =   1.00000

Frozen or restrained atoms:
     ibelly  =       0, ntr     =       0

Molecular dynamics:
     nstlim  =    250000, nscm    =      1000, nrespa  =         1
     t       =   0.00000, dt      =   0.00100, vlimit  =  20.00000

Berendsen (weak-coupling) temperature regulation:
     temp0   = 300.00000, tempi   = 300.00000, tautp   =   1.00000

SHAKE:
     ntc     =       2, jfastw  =       0
     tol     =   0.00001

Ewald parameters:
     verbose =       0, ew_type =       0, nbflag  =       1, use_pme =       1
     vdwmeth =       1, eedmeth =       1, netfrc  =       1
     Box X =   31.077   Box Y =   31.077   Box Z =  150.000
     Alpha =   90.000   Beta  =   90.000   Gamma =   90.000
     NFFT1 =   32       NFFT2 =   32       NFFT3 =  150
     Cutoff=    8.000   Tol   =0.100E-04
     Ewald Coefficient =  0.34864
     Interpolation order =    4

--------------------------------------------------------------------------------
   3.  ATOMIC COORDINATES AND VELOCITIES
--------------------------------------------------------------------------------

default_name
 begin time read from input coords =   200.000 ps

 Number of triangulated 3-point waters found:     1000

     Sum of charges from parm topology file =   0.00000000
     Forcing neutrality...

--------------------------------------------------------------------------------
   4.  RESULTS
 NSTEP =       50   TIME(PS) =     200.050  TEMP(K) =   345.33  PRESS =     0.0
 Etot   =     -7363.4306  EKtot   =      2060.7689  EPtot      =     -9424.1994
 BOND   =         3.0885  ANGLE   =        13.7041  DIHED      =         0.0000
 1-4 NB =         0.0000  1-4 EEL =         0.0000  VDWAALS    =      1680.9853
 EELEC  =    -11121.9773  EHBOND  =         0.0000  RESTRAINT  =         0.0000
 Ewald error estimate:   0.1878E-03
 ------------------------------------------------------------------------------

      A V E R A G E S   O V E R    5000 S T E P S

 NSTEP =   250000   TIME(PS) =     450.000  TEMP(K) =   300.13  PRESS =     0.0
 Etot   =     -7579.5433  EKtot   =      1791.0212  EPtot      =     -9370.5645
 BOND   =         5.6199  ANGLE   =         4.6283  DIHED      =         0.0000
 1-4 NB =         0.0000  1-4 EEL =         0.0000  VDWAALS    =      1594.2226
 EELEC  =    -10975.0352  EHBOND  =         0.0000  RESTRAINT  =         0.0000
 Ewald error estimate:   0.1683E-03
 ------------------------------------------------------------------------------

      R M S  F L U C T U A T I O N S

 NSTEP =   250000   TIME(PS) =     450.000  TEMP(K) =     5.10  PRESS =     0.0
 Etot   =        20.1612  EKtot   =        30.4215  EPtot      =        33.8553
 BOND   =         1.8037  ANGLE   =         3.3757  DIHED      =         0.0000
 1-4 NB =         0.0000  1-4 EEL =         0.0000  VDWAALS    =        48.8478
 EELEC  =        64.9005  EHBOND  =         0.0000  RESTRAINT  =         0.0000
 Ewald error estimate:   0.1246E-03
 ------------------------------------------------------------------------------
